diff -bic /scratch/cnt0024/hmg2840/albert7a/WNACHOS12.L75-MAA01/NEMO/LIM_SRC_2/iceini_2.F90 /scratch/cnt0024/hmg2840/albert7a/DEV/NEMODRAK_4.0/NEMOREF/NEMOGCM/NEMO/LIM_SRC_2/iceini_2.F90
*** /scratch/cnt0024/hmg2840/albert7a/WNACHOS12.L75-MAA01/NEMO/LIM_SRC_2/iceini_2.F90	Tue Apr  4 14:51:16 2017
--- /scratch/cnt0024/hmg2840/albert7a/DEV/NEMODRAK_4.0/NEMOREF/NEMOGCM/NEMO/LIM_SRC_2/iceini_2.F90	Fri Feb 24 15:39:23 2017
***************
*** 39,45 ****
  
     !!----------------------------------------------------------------------
     !! NEMO/LIM2 4.0 , UCL - NEMO Consortium (2011)
!    !! $Id: iceini_2.F90 5385 2015-06-09 13:50:42Z cetlod $
     !! Software governed by the CeCILL licence     (NEMOGCM/NEMO_CeCILL.txt)
     !!----------------------------------------------------------------------
  CONTAINS
--- 39,45 ----
  
     !!----------------------------------------------------------------------
     !! NEMO/LIM2 4.0 , UCL - NEMO Consortium (2011)
!    !! $Id: iceini_2.F90 6140 2015-12-21 11:35:23Z timgraham $
     !! Software governed by the CeCILL licence     (NEMOGCM/NEMO_CeCILL.txt)
     !!----------------------------------------------------------------------
  CONTAINS
***************
*** 120,126 ****
        NAMELIST/namicerun/ cn_icerst_in, cn_icerst_indir, cn_icerst_out, cn_icerst_outdir, &
                            ln_limdyn, ln_limdmp, acrit, hsndif, hicdif
        INTEGER  ::   ios                 ! Local integer output status for namelist read
-       CHARACTER(LEN=20) :: cl_no
        !!-------------------------------------------------------------------
        !                    
        REWIND( numnam_ice_ref )              ! Namelist namicerun in reference namelist : Parameters for ice
--- 120,125 ----
***************
*** 132,149 ****
  902   IF( ios /= 0 ) CALL ctl_nam ( ios , 'namicerun in configuration namelist', lwp )
        IF(lwm) WRITE ( numoni, namicerun )
        !
-       ! Add extension (job number to the restart dir. Differ for restart input and restart output
- !{ DRAKKAR modification : NEMO reads restart files :<CN_ICERST_INDIR>.<<nn_no-1>>/<CN_ICERST_IN>-<<nn_no -1 >>_<RANK>.nc
-       WRITE(cl_no,*) nn_no-1 ; cl_no = TRIM(ADJUSTL(cl_no) )
-       cn_icerst_indir=TRIM(cn_icerst_indir)//'.'//TRIM(cl_no)
-       cn_icerst_in= TRIM(cn_icerst_in)//'-'//TRIM(cl_no)
- 
- !  DRAKKAR modification : NEMO write restart files :<CN_ICERST_OUTDIR>.<<nn_no>>/<CN_ICERST_OUT>-<<nn_no >>_<RANK>.nc
-       WRITE(cl_no,*) nn_no   ; cl_no = TRIM(ADJUSTL(cl_no) )
-       cn_icerst_outdir=TRIM(cn_icerst_outdir)//'.'//TRIM(cl_no)
-       cn_icerst_out= TRIM(cn_icerst_out)//'-'//TRIM(cl_no)
- !}
- 
        IF(lwp) THEN                              ! control print
           WRITE(numout,*)
           WRITE(numout,*) 'ice_run : ice share parameters for dynamics/advection/thermo of sea-ice'
--- 131,136 ----
diff -bic /scratch/cnt0024/hmg2840/albert7a/WNACHOS12.L75-MAA01/NEMO/LIM_SRC_2/limdmp_2.F90 /scratch/cnt0024/hmg2840/albert7a/DEV/NEMODRAK_4.0/NEMOREF/NEMOGCM/NEMO/LIM_SRC_2/limdmp_2.F90
*** /scratch/cnt0024/hmg2840/albert7a/WNACHOS12.L75-MAA01/NEMO/LIM_SRC_2/limdmp_2.F90	Tue Apr  4 14:51:16 2017
--- /scratch/cnt0024/hmg2840/albert7a/DEV/NEMODRAK_4.0/NEMOREF/NEMOGCM/NEMO/LIM_SRC_2/limdmp_2.F90	Fri Feb 24 15:39:23 2017
***************
*** 33,39 ****
  #  include "vectopt_loop_substitute.h90"
     !!----------------------------------------------------------------------
     !! NEMO/LIM 3.3 , UCL-NEMO-consortium (2010) 
!    !! $Id: limdmp_2.F90 4624 2014-04-28 12:09:03Z acc $
     !! Software governed by the CeCILL licence     (NEMOGCM/NEMO_CeCILL.txt)
     !!----------------------------------------------------------------------
  CONTAINS
--- 33,39 ----
  #  include "vectopt_loop_substitute.h90"
     !!----------------------------------------------------------------------
     !! NEMO/LIM 3.3 , UCL-NEMO-consortium (2010) 
!    !! $Id: limdmp_2.F90 5836 2015-10-26 14:49:40Z cetlod $
     !! Software governed by the CeCILL licence     (NEMOGCM/NEMO_CeCILL.txt)
     !!----------------------------------------------------------------------
  CONTAINS
***************
*** 58,64 ****
        !
        IF( kt == nit000 ) THEN 
           IF(lwp) WRITE(numout,*)
!          IF(lwp) WRITE(numout,*) 'lim_dmp_2 : Ice thickness and lead fraction restoring'
           IF(lwp) WRITE(numout,*) '~~~~~~~~~~'
           !
           ! ice_resto_init create resto_ice (in 1/s) for restoring ice parameters near open boundaries.
--- 58,64 ----
        !
        IF( kt == nit000 ) THEN 
           IF(lwp) WRITE(numout,*)
!          IF(lwp) WRITE(numout,*) 'lim_dmp_2 : Ice thickness and ice concentration restoring'
           IF(lwp) WRITE(numout,*) '~~~~~~~~~~'
           !
           ! ice_resto_init create resto_ice (in 1/s) for restoring ice parameters near open boundaries.
***************
*** 66,71 ****
--- 66,72 ----
           CALL lim_dmp_init
        ENDIF
        !
+       IF( ln_limdmp ) THEN   ! ice restoring in this case
           !
           CALL fld_read( kt, nn_fsbc, sf_icedmp )
           !
***************
*** 74,79 ****
--- 75,81 ----
           frld (:,:) = MAX( 0._wp, MIN( 1._wp,         &        ! 0<= frld<=1    values which blow the run up
              &         frld (:,:) - rdt_ice * resto_ice(:,:,1) * ( frld (:,:) - sf_icedmp(jp_frld )%fnow(:,:,1) )  )  )
           !
+       ENDIF
        !
     END SUBROUTINE lim_dmp_2
  
***************
*** 100,106 ****
        TYPE(FLD_N), DIMENSION (2)   ::   sl_icedmp    ! informations about the icedmp  field to be read
        TYPE(FLD_N)                  ::   sn_hicif     ! 
        TYPE(FLD_N)                  ::   sn_frld      ! 
!       NAMELIST/namice_dmp/ cn_dir, sn_hicif, sn_frld
        !!----------------------------------------------------------------------
        !
        ! 1)  initialize fld read structure for input data 
--- 102,108 ----
        TYPE(FLD_N), DIMENSION (2)   ::   sl_icedmp    ! informations about the icedmp  field to be read
        TYPE(FLD_N)                  ::   sn_hicif     ! 
        TYPE(FLD_N)                  ::   sn_frld      ! 
!       NAMELIST/namice_dmp/ cn_dir, ln_limdmp, sn_hicif, sn_frld
        !!----------------------------------------------------------------------
        !
        ! 1)  initialize fld read structure for input data 
***************
*** 118,123 ****
--- 120,126 ----
        IF ( lwp ) THEN                     !* control print
           WRITE (numout,*)'     lim_dmp_init : lim_dmp initialization ' 
           WRITE (numout,*)'       Namelist namicedmp read '
+          WRITE (numout,*)'         Ice restoring (T) or not (F) ln_limdmp =', ln_limdmp 
           WRITE (numout,*)
           WRITE (numout,*)'     CAUTION : here hard coded ice restoring along northern and southern boundaries'
           WRITE (numout,*)'               adapt the lim_dmp_init routine to your needs'
***************
*** 126,131 ****
--- 129,135 ----
        ! 2)  initialise resto_ice    ==>  config dependant !
        !     --------------------         ++++++++++++++++
        !
+       IF( ln_limdmp ) THEN                !* ice restoring is used, follow initialization
           ! 
           sl_icedmp ( jp_hicif ) = sn_hicif
           sl_icedmp ( jp_frld  ) = sn_frld
***************
*** 161,166 ****
--- 165,171 ----
              zreltim = zdmpmin + zfactor * (jpjglo - ( mjg(jj) - jpjzoom + 1 ))
              resto_ice(:,jj,:) = 1.e0 / ( zreltim * 86400 )
           END DO
+       ENDIF
        !
     END SUBROUTINE lim_dmp_init
     
diff -bic /scratch/cnt0024/hmg2840/albert7a/WNACHOS12.L75-MAA01/NEMO/LIM_SRC_2/limrst_2.F90 /scratch/cnt0024/hmg2840/albert7a/DEV/NEMODRAK_4.0/NEMOREF/NEMOGCM/NEMO/LIM_SRC_2/limrst_2.F90
*** /scratch/cnt0024/hmg2840/albert7a/WNACHOS12.L75-MAA01/NEMO/LIM_SRC_2/limrst_2.F90	Tue Apr  4 14:51:16 2017
--- /scratch/cnt0024/hmg2840/albert7a/DEV/NEMODRAK_4.0/NEMOREF/NEMOGCM/NEMO/LIM_SRC_2/limrst_2.F90	Fri Feb 24 15:39:23 2017
***************
*** 34,40 ****
  
     !!----------------------------------------------------------------------
     !! NEMO/LIM2 3.3 , UCL - NEMO Consortium (2010)
!    !! $Id: limrst_2.F90 5341 2015-06-03 14:59:46Z davestorkey $
     !! Software governed by the CeCILL licence     (NEMOGCM/NEMO_CeCILL.txt)
     !!----------------------------------------------------------------------
  CONTAINS
--- 34,40 ----
  
     !!----------------------------------------------------------------------
     !! NEMO/LIM2 3.3 , UCL - NEMO Consortium (2010)
!    !! $Id: limrst_2.F90 6140 2015-12-21 11:35:23Z timgraham $
     !! Software governed by the CeCILL licence     (NEMOGCM/NEMO_CeCILL.txt)
     !!----------------------------------------------------------------------
  CONTAINS
***************
*** 64,73 ****
              ELSE                           ;   WRITE(clkt, '(i8.8)') nitrst
              ENDIF
              ! create the file
! !{ DRAKKAR : use simpler name for restart files ( defined in iceini_2.F90 )
!             !clname = TRIM(cexper)//"_"//TRIM(ADJUSTL(clkt))//"_"//TRIM(cn_icerst_out)
!             clname = TRIM(cn_icerst_out)
! !}
              clpath = TRIM(cn_icerst_outdir) 
              IF( clpath(LEN_TRIM(clpath):) /= '/' ) clpath = TRIM(clpath)//'/' 
              IF(lwp) THEN
--- 64,70 ----
              ELSE                           ;   WRITE(clkt, '(i8.8)') nitrst
              ENDIF
              ! create the file
!             clname = TRIM(cexper)//"_"//TRIM(ADJUSTL(clkt))//"_"//TRIM(cn_icerst_out)
              clpath = TRIM(cn_icerst_outdir) 
              IF( clpath(LEN_TRIM(clpath):) /= '/' ) clpath = TRIM(clpath)//'/' 
              IF(lwp) THEN
diff -bic /scratch/cnt0024/hmg2840/albert7a/WNACHOS12.L75-MAA01/NEMO/LIM_SRC_3/limistate.F90 /scratch/cnt0024/hmg2840/albert7a/DEV/NEMODRAK_4.0/NEMOREF/NEMOGCM/NEMO/LIM_SRC_3/limistate.F90
*** /scratch/cnt0024/hmg2840/albert7a/WNACHOS12.L75-MAA01/NEMO/LIM_SRC_3/limistate.F90	Tue Apr  4 14:56:58 2017
--- /scratch/cnt0024/hmg2840/albert7a/DEV/NEMODRAK_4.0/NEMOREF/NEMOGCM/NEMO/LIM_SRC_3/limistate.F90	Fri Feb 24 15:39:23 2017
***************
*** 312,318 ****
                    END DO ! i_fill
  
                    IF(lwp) THEN 
! !                    WRITE(numout,*) ' ztests : ', ztests
                       IF( ztests .NE. 4 )THEN
                          WRITE(numout,*)
                          WRITE(numout,*) ' !!!! ALERT                  !!! '
--- 312,318 ----
                    END DO ! i_fill
  
                    IF(lwp) THEN 
!                      WRITE(numout,*) ' ztests : ', ztests
                       IF( ztests .NE. 4 )THEN
                          WRITE(numout,*)
                          WRITE(numout,*) ' !!!! ALERT                  !!! '
diff -bic /scratch/cnt0024/hmg2840/albert7a/WNACHOS12.L75-MAA01/NEMO/LIM_SRC_3/limrst.F90 /scratch/cnt0024/hmg2840/albert7a/DEV/NEMODRAK_4.0/NEMOREF/NEMOGCM/NEMO/LIM_SRC_3/limrst.F90
*** /scratch/cnt0024/hmg2840/albert7a/WNACHOS12.L75-MAA01/NEMO/LIM_SRC_3/limrst.F90	Tue Apr  4 14:51:15 2017
--- /scratch/cnt0024/hmg2840/albert7a/DEV/NEMODRAK_4.0/NEMOREF/NEMOGCM/NEMO/LIM_SRC_3/limrst.F90	Fri Feb 24 15:39:23 2017
***************
*** 70,82 ****
              ELSE                           ;   WRITE(clkt, '(i8.8)') nitrst
              ENDIF
              ! create the file
! !{ DRAKKAR : use simpler name for restart files ( defined in iceini_2.F90 )
!             !clname = TRIM(cexper)//"_"//TRIM(ADJUSTL(clkt))//"_"//TRIM(cn_icerst_out)
!             clname = TRIM(cn_icerst_out)
! !}
!             clpath = TRIM(cn_icerst_outdir)
!             IF( clpath(LEN_TRIM(clpath):) /= '/' ) clpath = TRIM(clpath)//'/'
! 
              clpath = TRIM(cn_icerst_outdir) 
              IF( clpath(LEN_TRIM(clpath):) /= '/' ) clpath = TRIM(clpath)//'/'
              IF(lwp) THEN
--- 70,76 ----
              ELSE                           ;   WRITE(clkt, '(i8.8)') nitrst
              ENDIF
              ! create the file
!             clname = TRIM(cexper)//"_"//TRIM(ADJUSTL(clkt))//"_"//TRIM(cn_icerst_out)
              clpath = TRIM(cn_icerst_outdir) 
              IF( clpath(LEN_TRIM(clpath):) /= '/' ) clpath = TRIM(clpath)//'/'
              IF(lwp) THEN
Common subdirectories: /scratch/cnt0024/hmg2840/albert7a/WNACHOS12.L75-MAA01/NEMO/TOP_SRC/C14b and /scratch/cnt0024/hmg2840/albert7a/DEV/NEMODRAK_4.0/NEMOREF/NEMOGCM/NEMO/TOP_SRC/C14b
Common subdirectories: /scratch/cnt0024/hmg2840/albert7a/WNACHOS12.L75-MAA01/NEMO/TOP_SRC/CFC and /scratch/cnt0024/hmg2840/albert7a/DEV/NEMODRAK_4.0/NEMOREF/NEMOGCM/NEMO/TOP_SRC/CFC
Common subdirectories: /scratch/cnt0024/hmg2840/albert7a/WNACHOS12.L75-MAA01/NEMO/TOP_SRC/MY_TRC and /scratch/cnt0024/hmg2840/albert7a/DEV/NEMODRAK_4.0/NEMOREF/NEMOGCM/NEMO/TOP_SRC/MY_TRC
Common subdirectories: /scratch/cnt0024/hmg2840/albert7a/WNACHOS12.L75-MAA01/NEMO/TOP_SRC/PISCES and /scratch/cnt0024/hmg2840/albert7a/DEV/NEMODRAK_4.0/NEMOREF/NEMOGCM/NEMO/TOP_SRC/PISCES
Common subdirectories: /scratch/cnt0024/hmg2840/albert7a/WNACHOS12.L75-MAA01/NEMO/TOP_SRC/TRP and /scratch/cnt0024/hmg2840/albert7a/DEV/NEMODRAK_4.0/NEMOREF/NEMOGCM/NEMO/TOP_SRC/TRP
diff -bic /scratch/cnt0024/hmg2840/albert7a/WNACHOS12.L75-MAA01/NEMO/TOP_SRC/trcnam.F90 /scratch/cnt0024/hmg2840/albert7a/DEV/NEMODRAK_4.0/NEMOREF/NEMOGCM/NEMO/TOP_SRC/trcnam.F90
*** /scratch/cnt0024/hmg2840/albert7a/WNACHOS12.L75-MAA01/NEMO/TOP_SRC/trcnam.F90	Tue Apr  4 14:51:16 2017
--- /scratch/cnt0024/hmg2840/albert7a/DEV/NEMODRAK_4.0/NEMOREF/NEMOGCM/NEMO/TOP_SRC/trcnam.F90	Fri Feb 24 15:39:23 2017
***************
*** 35,41 ****
  
     !!----------------------------------------------------------------------
     !! NEMO/TOP 3.3 , NEMO Consortium (2010)
!    !! $Id: trcnam.F90 6204 2016-01-04 13:47:06Z cetlod $
     !! Software governed by the CeCILL licence (NEMOGCM/NEMO_CeCILL.txt)
     !!----------------------------------------------------------------------
  CONTAINS
--- 35,41 ----
  
     !!----------------------------------------------------------------------
     !! NEMO/TOP 3.3 , NEMO Consortium (2010)
!    !! $Id: trcnam.F90 6140 2015-12-21 11:35:23Z timgraham $
     !! Software governed by the CeCILL licence (NEMOGCM/NEMO_CeCILL.txt)
     !!----------------------------------------------------------------------
  CONTAINS
***************
*** 170,176 ****
          &                  cn_trcrst_indir, cn_trcrst_outdir, cn_trcrst_in, cn_trcrst_out
        !
        INTEGER  ::   ios                 ! Local integer output status for namelist read
-       CHARACTER(LEN=255) :: cl_no
        !!---------------------------------------------------------------------
        !
        IF(lwp) WRITE(numout,*) 'trc_nam_run : read the passive tracer namelists'
--- 170,175 ----
***************
*** 189,206 ****
  902   IF( ios /= 0 ) CALL ctl_nam ( ios , 'namtrc in configuration namelist', lwp )
        IF(lwm) WRITE ( numont, namtrc_run )
  
-       ! Add extension (job number to the restart dir. Differ for restart input and restart output
- !{ DRAKKAR modification : NEMO reads restart files :<CN_OCERST_INDIR>.<<nn_no-1>>/<CN_OCERST_IN>-<<nn_no -1 >>_<RANK>.nc
-       WRITE(cl_no,*) nn_no-1 ; cl_no = TRIM(ADJUSTL(cl_no) )
-       cn_trcrst_indir=TRIM(cn_trcrst_indir)//'.'//TRIM(cl_no)
-       cn_trcrst_in= TRIM(cn_trcrst_in)//'-'//TRIM(cl_no)
- 
-       !  DRAKKAR modification : NEMO writes restart files :<CN_OCERST_INDIR>.<<nn_no>>/<CN_OCERST_IN>-<<nn_no  >>_<RANK>.nc
-       WRITE(cl_no,*) nn_no   ; cl_no = TRIM(ADJUSTL(cl_no) )
-       cn_trcrst_outdir=TRIM(cn_trcrst_outdir)//'.'//TRIM(cl_no)
-       cn_trcrst_out= TRIM(cn_trcrst_out)//'-'//TRIM(cl_no)
- !}
- 
        !  computes the first time step of tracer model
        nittrc000 = nit000 + nn_dttrc - 1
  
--- 188,193 ----
***************
*** 394,400 ****
  
     !!----------------------------------------------------------------------
     !! NEMO/TOP 3.3 , NEMO Consortium (2010)
!    !! $Id: trcnam.F90 6204 2016-01-04 13:47:06Z cetlod $
     !! Software governed by the CeCILL licence (NEMOGCM/NEMO_CeCILL.txt)
     !!======================================================================
  END MODULE trcnam
--- 381,387 ----
  
     !!----------------------------------------------------------------------
     !! NEMO/TOP 3.3 , NEMO Consortium (2010)
!    !! $Id: trcnam.F90 6140 2015-12-21 11:35:23Z timgraham $
     !! Software governed by the CeCILL licence (NEMOGCM/NEMO_CeCILL.txt)
     !!======================================================================
  END MODULE trcnam
diff -bic /scratch/cnt0024/hmg2840/albert7a/WNACHOS12.L75-MAA01/NEMO/TOP_SRC/trcrst.F90 /scratch/cnt0024/hmg2840/albert7a/DEV/NEMODRAK_4.0/NEMOREF/NEMOGCM/NEMO/TOP_SRC/trcrst.F90
*** /scratch/cnt0024/hmg2840/albert7a/WNACHOS12.L75-MAA01/NEMO/TOP_SRC/trcrst.F90	Tue Apr  4 14:51:16 2017
--- /scratch/cnt0024/hmg2840/albert7a/DEV/NEMODRAK_4.0/NEMOREF/NEMOGCM/NEMO/TOP_SRC/trcrst.F90	Fri Feb 24 15:39:23 2017
***************
*** 14,32 ****
     !!----------------------------------------------------------------------
     !!----------------------------------------------------------------------
     !!   trc_rst :   Restart for passive tracer
-    !!----------------------------------------------------------------------
-    !!----------------------------------------------------------------------
-    !!   'key_top'                                                TOP models
-    !!----------------------------------------------------------------------
     !!   trc_rst_opn    : open  restart file
     !!   trc_rst_read   : read  restart file
     !!   trc_rst_wri    : write restart file
     !!----------------------------------------------------------------------
     USE oce_trc
     USE trc
-    USE trcnam_trp
     USE iom
     USE daymod
     IMPLICIT NONE
     PRIVATE
  
--- 14,28 ----
     !!----------------------------------------------------------------------
     !!----------------------------------------------------------------------
     !!   trc_rst        : Restart for passive tracer
     !!   trc_rst_opn    : open  restart file
     !!   trc_rst_read   : read  restart file
     !!   trc_rst_wri    : write restart file
     !!----------------------------------------------------------------------
     USE oce_trc
     USE trc
     USE iom
     USE daymod
+    
     IMPLICIT NONE
     PRIVATE
  
***************
*** 35,43 ****
     PUBLIC   trc_rst_wri       ! called by ???
     PUBLIC   trc_rst_cal
  
!    !! * Substitutions
! #  include "top_substitute.h90"
!    
  CONTAINS
     
     SUBROUTINE trc_rst_opn( kt )
--- 31,41 ----
     PUBLIC   trc_rst_wri       ! called by ???
     PUBLIC   trc_rst_cal
  
!    !!----------------------------------------------------------------------
!    !! NEMO/TOP 3.7 , NEMO Consortium (2010)
!    !! $Id: trcrst.F90 6140 2015-12-21 11:35:23Z timgraham $
!    !! Software governed by the CeCILL licence (NEMOGCM/NEMO_CeCILL.txt)
!    !!----------------------------------------------------------------------
  CONTAINS
     
     SUBROUTINE trc_rst_opn( kt )
***************
*** 83,92 ****
           ENDIF
           ! create the file
           IF(lwp) WRITE(numout,*)
! !{ DRAKKAR : use simpler name for restart files ( defined in trcnam.F90 )
! !        clname = TRIM(cexper)//"_"//TRIM(ADJUSTL(clkt))//"_"//TRIM(cn_trcrst_out)
!          clname = TRIM(cn_trcrst_out)
! !}
           clpath = TRIM(cn_trcrst_outdir)
           IF( clpath(LEN_TRIM(clpath):) /= '/' ) clpath = TRIM(clpath) // '/'
           IF(lwp) WRITE(numout,*) &
--- 81,87 ----
           ENDIF
           ! create the file
           IF(lwp) WRITE(numout,*)
!          clname = TRIM(cexper)//"_"//TRIM(ADJUSTL(clkt))//"_"//TRIM(cn_trcrst_out)
           clpath = TRIM(cn_trcrst_outdir)
           IF( clpath(LEN_TRIM(clpath):) /= '/' ) clpath = TRIM(clpath) // '/'
           IF(lwp) WRITE(numout,*) &
***************
*** 134,140 ****
        REAL(wp) :: zarak0
        !!----------------------------------------------------------------------
        !
!       CALL iom_rstput( kt, nitrst, numrtw, 'rdttrc1', rdttrc(1) )   ! surface passive tracer time step
        ! prognostic variables 
        ! -------------------- 
        DO jn = 1, jptra
--- 129,135 ----
        REAL(wp) :: zarak0
        !!----------------------------------------------------------------------
        !
!       CALL iom_rstput( kt, nitrst, numrtw, 'rdttrc1', rdttrc )   ! passive tracer time step
        ! prognostic variables 
        ! -------------------- 
        DO jn = 1, jptra
***************
*** 202,214 ****
           IF(lwp) WRITE(numout,*) 'trc_rst_cal : read the TOP restart file for calendar'
           IF(lwp) WRITE(numout,*) '~~~~~~~~~~~~'
  
-          IF ( jprstlib == jprstdimg ) THEN
-            ! eventually read netcdf file (monobloc)  for restarting on different number of processors
-            ! if {cn_trcrst_in}.nc exists, then set jlibalt to jpnf90 
-            INQUIRE( FILE = TRIM(cn_trcrst_indir)//'/'//TRIM(cn_trcrst_in)//'.nc', EXIST = llok )
-            IF ( llok ) THEN ; jlibalt = jpnf90  ; ELSE ; jlibalt = jprstlib ; ENDIF
-          ENDIF
- 
           IF( ln_rsttr ) THEN
              CALL iom_open( TRIM(cn_trcrst_indir)//'/'//cn_trcrst_in, numrtr, kiolib = jlibalt )
              CALL iom_get ( numrtr, 'kt', zkt )   ! last time-step of previous run
--- 197,202 ----
***************
*** 238,244 ****
                 CALL iom_get( numrtr, 'adatrj', adatrj  )
               ELSE
                 ndastp = ndate0 - 1     ! ndate0 read in the namelist in dom_nam
!                adatrj = ( REAL( nittrc000-1, wp ) * rdttra(1) ) / rday
                 ! note this is wrong if time step has changed during run
              ENDIF
              !
--- 226,232 ----
                 CALL iom_get( numrtr, 'adatrj', adatrj  )
               ELSE
                 ndastp = ndate0 - 1     ! ndate0 read in the namelist in dom_nam
!                adatrj = ( REAL( nittrc000-1, wp ) * rdt ) / rday
                 ! note this is wrong if time step has changed during run
              ENDIF
              !
***************
*** 291,297 ****
        ENDIF
        !
        DO jk = 1, jpk
!          zvol(:,:,jk) = e1e2t(:,:) * fse3t_a(:,:,jk) * tmask(:,:,jk)
        END DO
        !
        DO jn = 1, jptra
--- 279,285 ----
        ENDIF
        !
        DO jk = 1, jpk
!          zvol(:,:,jk) = e1e2t(:,:) * e3t_a(:,:,jk) * tmask(:,:,jk)
        END DO
        !
        DO jn = 1, jptra
***************
*** 306,312 ****
           zdrift = ( ( ztraf - trai(jn) ) / ( trai(jn) + 1.e-12 )  ) * 100._wp
           IF(lwp) WRITE(numout,9000) jn, TRIM( ctrcnm(jn) ), zmean, zmin, zmax, zdrift
        END DO
!       IF (lwp )WRITE(numout,*) 
  9000  FORMAT(' tracer nb :',i2,'    name :',a10,'    mean :',e18.10,'    min :',e18.10, &
        &      '    max :',e18.10,'    drift :',e18.10, ' %')
        !
--- 294,300 ----
           zdrift = ( ( ztraf - trai(jn) ) / ( trai(jn) + 1.e-12 )  ) * 100._wp
           IF(lwp) WRITE(numout,9000) jn, TRIM( ctrcnm(jn) ), zmean, zmin, zmax, zdrift
        END DO
!       WRITE(numout,*) 
  9000  FORMAT(' tracer nb :',i2,'    name :',a10,'    mean :',e18.10,'    min :',e18.10, &
        &      '    max :',e18.10,'    drift :',e18.10, ' %')
        !
***************
*** 327,333 ****
  
     !!----------------------------------------------------------------------
     !! NEMO/TOP 3.3 , NEMO Consortium (2010)
!    !! $Id: trcrst.F90 5513 2015-06-30 09:59:46Z cetlod $
     !! Software governed by the CeCILL licence (NEMOGCM/NEMO_CeCILL.txt)
     !!======================================================================
  END MODULE trcrst
--- 315,321 ----
  
     !!----------------------------------------------------------------------
     !! NEMO/TOP 3.3 , NEMO Consortium (2010)
!    !! $Id: trcrst.F90 6140 2015-12-21 11:35:23Z timgraham $
     !! Software governed by the CeCILL licence (NEMOGCM/NEMO_CeCILL.txt)
     !!======================================================================
  END MODULE trcrst
Common subdirectories: /scratch/cnt0024/hmg2840/albert7a/WNACHOS12.L75-MAA01/NEMO/TOP_SRC/PISCES/P2Z and /scratch/cnt0024/hmg2840/albert7a/DEV/NEMODRAK_4.0/NEMOREF/NEMOGCM/NEMO/TOP_SRC/PISCES/P2Z
Common subdirectories: /scratch/cnt0024/hmg2840/albert7a/WNACHOS12.L75-MAA01/NEMO/TOP_SRC/PISCES/P4Z and /scratch/cnt0024/hmg2840/albert7a/DEV/NEMODRAK_4.0/NEMOREF/NEMOGCM/NEMO/TOP_SRC/PISCES/P4Z
Common subdirectories: /scratch/cnt0024/hmg2840/albert7a/WNACHOS12.L75-MAA01/NEMO/TOP_SRC/PISCES/SED and /scratch/cnt0024/hmg2840/albert7a/DEV/NEMODRAK_4.0/NEMOREF/NEMOGCM/NEMO/TOP_SRC/PISCES/SED
Common subdirectories: /scratch/cnt0024/hmg2840/albert7a/WNACHOS12.L75-MAA01/NEMO/OPA_SRC/ASM and /scratch/cnt0024/hmg2840/albert7a/DEV/NEMODRAK_4.0/NEMOREF/NEMOGCM/NEMO/OPA_SRC/ASM
Common subdirectories: /scratch/cnt0024/hmg2840/albert7a/WNACHOS12.L75-MAA01/NEMO/OPA_SRC/BDY and /scratch/cnt0024/hmg2840/albert7a/DEV/NEMODRAK_4.0/NEMOREF/NEMOGCM/NEMO/OPA_SRC/BDY
Common subdirectories: /scratch/cnt0024/hmg2840/albert7a/WNACHOS12.L75-MAA01/NEMO/OPA_SRC/C1D and /scratch/cnt0024/hmg2840/albert7a/DEV/NEMODRAK_4.0/NEMOREF/NEMOGCM/NEMO/OPA_SRC/C1D
Common subdirectories: /scratch/cnt0024/hmg2840/albert7a/WNACHOS12.L75-MAA01/NEMO/OPA_SRC/CRS and /scratch/cnt0024/hmg2840/albert7a/DEV/NEMODRAK_4.0/NEMOREF/NEMOGCM/NEMO/OPA_SRC/CRS
Common subdirectories: /scratch/cnt0024/hmg2840/albert7a/WNACHOS12.L75-MAA01/NEMO/OPA_SRC/DIA and /scratch/cnt0024/hmg2840/albert7a/DEV/NEMODRAK_4.0/NEMOREF/NEMOGCM/NEMO/OPA_SRC/DIA
Common subdirectories: /scratch/cnt0024/hmg2840/albert7a/WNACHOS12.L75-MAA01/NEMO/OPA_SRC/DIU and /scratch/cnt0024/hmg2840/albert7a/DEV/NEMODRAK_4.0/NEMOREF/NEMOGCM/NEMO/OPA_SRC/DIU
Common subdirectories: /scratch/cnt0024/hmg2840/albert7a/WNACHOS12.L75-MAA01/NEMO/OPA_SRC/DOM and /scratch/cnt0024/hmg2840/albert7a/DEV/NEMODRAK_4.0/NEMOREF/NEMOGCM/NEMO/OPA_SRC/DOM
Common subdirectories: /scratch/cnt0024/hmg2840/albert7a/WNACHOS12.L75-MAA01/NEMO/OPA_SRC/DYN and /scratch/cnt0024/hmg2840/albert7a/DEV/NEMODRAK_4.0/NEMOREF/NEMOGCM/NEMO/OPA_SRC/DYN
Common subdirectories: /scratch/cnt0024/hmg2840/albert7a/WNACHOS12.L75-MAA01/NEMO/OPA_SRC/FLO and /scratch/cnt0024/hmg2840/albert7a/DEV/NEMODRAK_4.0/NEMOREF/NEMOGCM/NEMO/OPA_SRC/FLO
Common subdirectories: /scratch/cnt0024/hmg2840/albert7a/WNACHOS12.L75-MAA01/NEMO/OPA_SRC/ICB and /scratch/cnt0024/hmg2840/albert7a/DEV/NEMODRAK_4.0/NEMOREF/NEMOGCM/NEMO/OPA_SRC/ICB
Common subdirectories: /scratch/cnt0024/hmg2840/albert7a/WNACHOS12.L75-MAA01/NEMO/OPA_SRC/IOM and /scratch/cnt0024/hmg2840/albert7a/DEV/NEMODRAK_4.0/NEMOREF/NEMOGCM/NEMO/OPA_SRC/IOM
Common subdirectories: /scratch/cnt0024/hmg2840/albert7a/WNACHOS12.L75-MAA01/NEMO/OPA_SRC/LBC and /scratch/cnt0024/hmg2840/albert7a/DEV/NEMODRAK_4.0/NEMOREF/NEMOGCM/NEMO/OPA_SRC/LBC
Common subdirectories: /scratch/cnt0024/hmg2840/albert7a/WNACHOS12.L75-MAA01/NEMO/OPA_SRC/LDF and /scratch/cnt0024/hmg2840/albert7a/DEV/NEMODRAK_4.0/NEMOREF/NEMOGCM/NEMO/OPA_SRC/LDF
Common subdirectories: /scratch/cnt0024/hmg2840/albert7a/WNACHOS12.L75-MAA01/NEMO/OPA_SRC/OBS and /scratch/cnt0024/hmg2840/albert7a/DEV/NEMODRAK_4.0/NEMOREF/NEMOGCM/NEMO/OPA_SRC/OBS
Only in /scratch/cnt0024/hmg2840/albert7a/WNACHOS12.L75-MAA01/NEMO/OPA_SRC/: README
Common subdirectories: /scratch/cnt0024/hmg2840/albert7a/WNACHOS12.L75-MAA01/NEMO/OPA_SRC/SBC and /scratch/cnt0024/hmg2840/albert7a/DEV/NEMODRAK_4.0/NEMOREF/NEMOGCM/NEMO/OPA_SRC/SBC
Only in /scratch/cnt0024/hmg2840/albert7a/WNACHOS12.L75-MAA01/NEMO/OPA_SRC/: SOL
Common subdirectories: /scratch/cnt0024/hmg2840/albert7a/WNACHOS12.L75-MAA01/NEMO/OPA_SRC/STO and /scratch/cnt0024/hmg2840/albert7a/DEV/NEMODRAK_4.0/NEMOREF/NEMOGCM/NEMO/OPA_SRC/STO
Common subdirectories: /scratch/cnt0024/hmg2840/albert7a/WNACHOS12.L75-MAA01/NEMO/OPA_SRC/TRA and /scratch/cnt0024/hmg2840/albert7a/DEV/NEMODRAK_4.0/NEMOREF/NEMOGCM/NEMO/OPA_SRC/TRA
Common subdirectories: /scratch/cnt0024/hmg2840/albert7a/WNACHOS12.L75-MAA01/NEMO/OPA_SRC/TRD and /scratch/cnt0024/hmg2840/albert7a/DEV/NEMODRAK_4.0/NEMOREF/NEMOGCM/NEMO/OPA_SRC/TRD
Common subdirectories: /scratch/cnt0024/hmg2840/albert7a/WNACHOS12.L75-MAA01/NEMO/OPA_SRC/ZDF and /scratch/cnt0024/hmg2840/albert7a/DEV/NEMODRAK_4.0/NEMOREF/NEMOGCM/NEMO/OPA_SRC/ZDF
diff -bic /scratch/cnt0024/hmg2840/albert7a/WNACHOS12.L75-MAA01/NEMO/OPA_SRC/nemogcm.F90 /scratch/cnt0024/hmg2840/albert7a/DEV/NEMODRAK_4.0/NEMOREF/NEMOGCM/NEMO/OPA_SRC/nemogcm.F90
*** /scratch/cnt0024/hmg2840/albert7a/WNACHOS12.L75-MAA01/NEMO/OPA_SRC/nemogcm.F90	Tue Apr  4 14:51:16 2017
--- /scratch/cnt0024/hmg2840/albert7a/DEV/NEMODRAK_4.0/NEMOREF/NEMOGCM/NEMO/OPA_SRC/nemogcm.F90	Fri Feb 24 15:39:23 2017
***************
*** 38,46 ****
     !!   nemo_gcm       : solve ocean dynamics, tracer, biogeochemistry and/or sea-ice
     !!   nemo_init      : initialization of the NEMO system
     !!   nemo_ctl       : initialisation of the contol print
!    !!   nemo_closefile : close remaining open files
     !!   nemo_alloc     : dynamical allocation
!    !!   nemo_partition : calculate MPP domain decomposition
     !!   factorise      : calculate the factors of the no. of MPI processes
     !!----------------------------------------------------------------------
     USE step_oce       ! module used in the ocean time stepping module (step.F90)
--- 38,46 ----
     !!   nemo_gcm      : solve ocean dynamics, tracer, biogeochemistry and/or sea-ice
     !!   nemo_init     : initialization of the NEMO system
     !!   nemo_ctl      : initialisation of the contol print
!    !!   nemo_closefile: close remaining open files
     !!   nemo_alloc    : dynamical allocation
!    !!   nemo_partition: calculate MPP domain decomposition
     !!   factorise     : calculate the factors of the no. of MPI processes
     !!----------------------------------------------------------------------
     USE step_oce       ! module used in the ocean time stepping module (step.F90)
***************
*** 87,94 ****